Flow Title=ras_bridge_unsteady
Program Version=4.10
Use Restart= 0 
Boundary Location=river1          ,reach1          ,1000    ,        ,                ,                ,                
Interval=5MIN
Flow Hydrograph= 61 
       3       3       3       3       3       3       4       5       6       6
       6       6       6       7       8       9      10      10      10      10
      10      11      12      13      14      15      15      15      15      16
      17      18      19      20      21      23      25      30      35      40
      45      50      55      60      65      70      70      70      70      70
      70      70      70      70      70      70      70      70      70      70
      70
DSS Path=
Use DSS=False
CWMS InputPosition= 0 
Use Fixed Start Time=False
Fixed Start Date/Time=,
Is Critical Boundary=False
Critical Boundary Flow=
Boundary Location=river1          ,reach1          ,0       ,        ,                ,                ,                
Friction Slope=0.005
