Plan Title=ras_bridge_plan
Program Version=5.00
Short Identifier=ras_bridge_plan                                                 
Simulation Date=22SEP2008,00:00,22SEP2008,05:00
Geom File=g01
Flow File=u01
Subcritical Flow
K Sum by GR= 0 
Std Step Tol= 0.003 
Critical Tol= 0.003 
Num of Std Step Trials= 20 
Max Error Tol= 0.1 
Flow Tol Ratio= 0.001 
Split Flow NTrial= 30 
Split Flow Tol= 0.006 
Split Flow Ratio= 0.02 
Log Output Level= 0 
Friction Slope Method= 1 
Unsteady Friction Slope Method= 2 
Unsteady Bridges Friction Slope Method= 1 
Parabolic Critical Depth
Global Vel Dist= 0 , 0 , 0 
Global Log Level= 0 
CheckData=True
Encroach Param=-1 ,0,0, 0 
Computation Interval=2SEC
Output Interval=1MIN
Run HTab= 1 
Run UNet= 1 
Run Sediment= 0 
Run PostProcess= 1 
Run WQNet= 0 
Run RASMapper= 0 
UNET Theta= 1 
UNET Theta Warmup= 1 
UNET ZTol= 0.0006 
UNET ZSATol= 0.015 
UNET QTol=
UNET MxIter= 20 
UNET Max Iter WO Improvement= 0 
UNET MaxInSteps= 0 
UNET DtIC= 0 
UNET DtMin= 0 
UNET MaxCRTS= 20 
UNET WFStab= 2 
UNET SFStab= 1 
UNET WFX= 1 
UNET SFX= 1 
UNET DSS MLevel= 4 
UNET Pardiso=0
UNET DZMax Abort= 30 
UNET Use Existing IB Tables= 0 
UNET Froude Reduction=True
UNET Froude Limit= 1 
UNET Froude Power= 10 
UNET Time Slicing=0,0, 5 
UNET Junction Losses=0
UNET D1 Cores= 0 
UNET D2 Coriolis=0
UNET D2 Cores= 0 
UNET D2 Theta= 1 
UNET D2 Theta Warmup= 1 
UNET D2 Z Tol= 0.003 
UNET D2 Max Iterations= 20 
UNET D2 Equation= 0 
UNET D2 TotalICTime=
UNET D2 RampUpFraction=0.5
UNET D2 TimeSlices= 1 
UNET D2 Eddy Viscosity=
UNET D2 BCVolumeCheck=0
UNET D2 Latitude=
UNET D1D2 MaxIter= 0 
UNET D1D2 ZTol=0.003
UNET D1D2 QTol=0.1
UNET D1D2 MinQTol=0.03
Instantaneous Interval=1MIN
Mapping Interval=1HOUR
DSS File=dss
Write IC File= 0 
Write IC File at Fixed DateTime=0
IC Time=,,
Write IC File Reoccurance=
Write IC File at Sim End=0
Echo Input=False
Echo Parameters=False
Echo Output=False
Write Detailed= 0 
HDF Write Warmup=0
HDF Write Time Slices=0
HDF Flush=0
HDF Compression= 1 
HDF Chunk Size= 1 
HDF Spatial Parts= 1 
HDF Use Max Rows=0
HDF Fixed Rows= 1 
Stage Flow Hydrograph=river1          ,reach1          ,1000
Stage Flow Hydrograph=river1          ,reach1          ,975.*
Stage Flow Hydrograph=river1          ,reach1          ,950.*
Stage Flow Hydrograph=river1          ,reach1          ,925.*
Stage Flow Hydrograph=river1          ,reach1          ,900.*
Stage Flow Hydrograph=river1          ,reach1          ,875.*
Stage Flow Hydrograph=river1          ,reach1          ,850.*
Stage Flow Hydrograph=river1          ,reach1          ,825.*
Stage Flow Hydrograph=river1          ,reach1          ,800.*
Stage Flow Hydrograph=river1          ,reach1          ,775.*
Stage Flow Hydrograph=river1          ,reach1          ,750.*
Stage Flow Hydrograph=river1          ,reach1          ,725.*
Stage Flow Hydrograph=river1          ,reach1          ,700.*
Stage Flow Hydrograph=river1          ,reach1          ,675.*
Stage Flow Hydrograph=river1          ,reach1          ,650.*
Stage Flow Hydrograph=river1          ,reach1          ,625.*
Stage Flow Hydrograph=river1          ,reach1          ,600.*
Stage Flow Hydrograph=river1          ,reach1          ,575.*
Stage Flow Hydrograph=river1          ,reach1          ,550.*
Stage Flow Hydrograph=river1          ,reach1          ,525.*
Stage Flow Hydrograph=river1          ,reach1          ,475.*
Stage Flow Hydrograph=river1          ,reach1          ,450.*
Stage Flow Hydrograph=river1          ,reach1          ,425.*
Stage Flow Hydrograph=river1          ,reach1          ,400.*
Stage Flow Hydrograph=river1          ,reach1          ,375.*
Stage Flow Hydrograph=river1          ,reach1          ,350.*
Stage Flow Hydrograph=river1          ,reach1          ,325.*
Stage Flow Hydrograph=river1          ,reach1          ,300.*
Stage Flow Hydrograph=river1          ,reach1          ,275.*
Stage Flow Hydrograph=river1          ,reach1          ,250.*
Stage Flow Hydrograph=river1          ,reach1          ,225.*
Stage Flow Hydrograph=river1          ,reach1          ,200.*
Stage Flow Hydrograph=river1          ,reach1          ,175.*
Stage Flow Hydrograph=river1          ,reach1          ,150.*
Stage Flow Hydrograph=river1          ,reach1          ,125.*
Stage Flow Hydrograph=river1          ,reach1          ,100.*
Stage Flow Hydrograph=river1          ,reach1          ,74.9999*
Stage Flow Hydrograph=river1          ,reach1          ,50.0000*
Stage Flow Hydrograph=river1          ,reach1          ,24.9999*
Stage Flow Hydrograph=river1          ,reach1          ,0
Calibration Method= 0 
Calibration Iterations= 20 
Calibration Max Change=0.05
Calibration Tolerance=0.2
Calibration Maximum=1.5
Calibration Minimum=0.5
Calibration Optimization Method= 1 
Calibration Window=,,,
WQ AD Non Conservative
WQ ULTIMATE=-1
WQ Max Comp Step=1HOUR
WQ Output Interval=15MIN
WQ Output Selected Increments= 0 
WQ Output face flow=0
WQ Output face velocity=0
WQ Output face area=0
WQ Output face dispersion=0
WQ Output cell volume=0
WQ Output cell surface area=0
WQ Output cell continuity=0
WQ Output cumulative cell continuity=0
WQ Output face conc=0
WQ Output face dconc_dx=0
WQ Output face courant=0
WQ Output face peclet=0
WQ Output face adv mass=0
WQ Output face disp mass=0
WQ Output cell mass=0
WQ Output cell source sink temp=0
WQ Output nsm pathways=0
WQ Output nsm derived pathways=0
WQ Output MaxMinRange=-1
WQ Daily Max Min Mean=-1
WQ Daily Range=0
WQ Daily Time=0
WQ Create Restart=0
WQ Fixed Restart=0
WQ Restart Simtime=
WQ Restart Date=
WQ Restart Hour=
WQ System Summary=0
WQ Write To DSS=0
WQ Use Fixed Temperature=0
WQ Fixed Temperature=
Sorting and Armoring Iterations= 10 
XS Update Threshold= 0.02 
Bed Roughness Predictor= 0 
Hydraulics Update Threshold= 0.02 
Energy Slope Method= 1 
Volume Change Method= 0 
Sediment Retention Method= 0 
XS Weighting Method= 0 
Number of US Weighted Cross Sections= 1 
Number of DS Weighted Cross Sections= 1 
Upstream XS Weight=0.25
Main XS Weight=0.5
Downstream XS Weight=0.25
Number of DS XS's Weighted with US Boundary= 1 
Upstream Boundary Weight= 1 
Weight of XSs Associated with US Boundary= 0 
Number of US XS's Weighted with DS Boundary= 1 
Downstream Boundary Weight= 0.5 
Weight of XSs Associated with DS Boundary= 0.5 
Sediment Output Level= 4 
Mass or Volume Output= 0 
Output Increment Type= 1 
Profile and TS Output Increment= 10 
XS Output Flag= 0 
XS Output Increment= 10 
Write Gradation File= 0 
Read Gradation Hotstart= 0 
Gradation File Name=
Write HDF5 File= 0 
Write DSS Sediment File= 0 
SV Curve= 0 
Specific Gage Flag= 0 
