Geom Title=ras_bridge_geo
Program Version=4.10
Viewing Rectangle= 0 , 1 , 1 , 0 

River Reach=river1          ,reach1          
Reach XY= 2 
 0.42060085836910.894849785407730.42489270386266 0.1137339055794
Rch Text X Y=0.4216738,0.6995708
Reverse River Text= 0 

Type RM Length L Ch R = 1 ,1000    ,25,25,25
Node Last Edited Time=Jul/03/2014 11:20:36
#Sta/Elev= 6 
       0       0      10       0   10.01      -1   19.99      -1      20       0
      30       0
#Mann= 3 , 0 , 0 
       0     .03       0      10     .03       0      20     .03       0
Bank Sta=10,20
XS Rating Curve= 0 ,0
XS HTab Starting El and Incr=-0.85,0.04, 100 
Exp/Cntr=0.3,0.1

Type RM Length L Ch R = 1 ,975.*   ,25,25,25
Node Last Edited Time=Jul/03/2014 11:22:25
#Sta/Elev= 6 
       0   -.125      10   -.125   10.01  -1.125   19.99  -1.125      20   -.125
      30   -.125
#Mann= 3 , 0 , 0 
       0     .03       0      10     .03       0      20     .03       0
Bank Sta=10,20
XS Rating Curve= 0 ,0
XS HTab Starting El and Incr=-0.98,0.04, 100 
Exp/Cntr=0.3,0.1

Type RM Length L Ch R = 1 ,950.*   ,25,25,25
Node Last Edited Time=Jul/03/2014 11:22:25
#Sta/Elev= 6 
       0    -.25      10    -.25   10.01   -1.25   19.99   -1.25      20    -.25
      30    -.25
#Mann= 3 , 0 , 0 
       0     .03       0      10     .03       0      20     .03       0
Bank Sta=10,20
XS Rating Curve= 0 ,0
XS HTab Starting El and Incr=-1.1,0.04, 100 
Exp/Cntr=0.3,0.1

Type RM Length L Ch R = 1 ,925.*   ,25,25,25
Node Last Edited Time=Jul/03/2014 11:22:25
#Sta/Elev= 6 
       0   -.375      10   -.375   10.01  -1.375   19.99  -1.375      20   -.375
      30   -.375
#Mann= 3 , 0 , 0 
       0     .03       0      10     .03       0      20     .03       0
Bank Sta=10,20
XS Rating Curve= 0 ,0
XS HTab Starting El and Incr=-1.23,0.04, 100 
Exp/Cntr=0.3,0.1

Type RM Length L Ch R = 1 ,900.*   ,25,25,25
Node Last Edited Time=Jul/03/2014 11:22:25
#Sta/Elev= 6 
       0     -.5      10     -.5   10.01    -1.5   19.99    -1.5      20     -.5
      30     -.5
#Mann= 3 , 0 , 0 
       0     .03       0      10     .03       0      20     .03       0
Bank Sta=10,20
XS Rating Curve= 0 ,0
XS HTab Starting El and Incr=-1.35,0.04, 100 
Exp/Cntr=0.3,0.1

Type RM Length L Ch R = 1 ,875.*   ,25,25,25
Node Last Edited Time=Jul/03/2014 11:22:25
#Sta/Elev= 6 
       0   -.625      10   -.625   10.01  -1.625   19.99  -1.625      20   -.625
      30   -.625
#Mann= 3 , 0 , 0 
       0     .03       0      10     .03       0      20     .03       0
Bank Sta=10,20
XS Rating Curve= 0 ,0
XS HTab Starting El and Incr=-1.48,0.04, 100 
Exp/Cntr=0.3,0.1

Type RM Length L Ch R = 1 ,850.*   ,25,25,25
Node Last Edited Time=Jul/03/2014 11:22:25
#Sta/Elev= 6 
       0    -.75      10    -.75   10.01   -1.75   19.99   -1.75      20    -.75
      30    -.75
#Mann= 3 , 0 , 0 
       0     .03       0      10     .03       0      20     .03       0
Bank Sta=10,20
XS Rating Curve= 0 ,0
XS HTab Starting El and Incr=-1.6,0.04, 100 
Exp/Cntr=0.3,0.1

Type RM Length L Ch R = 1 ,825.*   ,25,25,25
Node Last Edited Time=Jul/03/2014 11:22:25
#Sta/Elev= 6 
       0   -.875      10   -.875   10.01  -1.875   19.99  -1.875      20   -.875
      30   -.875
#Mann= 3 , 0 , 0 
       0     .03       0      10     .03       0      20     .03       0
Bank Sta=10,20
XS Rating Curve= 0 ,0
XS HTab Starting El and Incr=-1.73,0.04, 100 
Exp/Cntr=0.3,0.1

Type RM Length L Ch R = 1 ,800.*   ,25,25,25
Node Last Edited Time=Jul/03/2014 11:22:25
#Sta/Elev= 6 
       0      -1      10      -1   10.01      -2   19.99      -2      20      -1
      30      -1
#Mann= 3 , 0 , 0 
       0     .03       0      10     .03       0      20     .03       0
Bank Sta=10,20
XS Rating Curve= 0 ,0
XS HTab Starting El and Incr=-1.85,0.04, 100 
Exp/Cntr=0.3,0.1

Type RM Length L Ch R = 1 ,775.*   ,25,25,25
Node Last Edited Time=Jul/03/2014 11:22:25
#Sta/Elev= 6 
       0  -1.125      10  -1.125   10.01  -2.125   19.99  -2.125      20  -1.125
      30  -1.125
#Mann= 3 , 0 , 0 
       0     .03       0      10     .03       0      20     .03       0
Bank Sta=10,20
XS Rating Curve= 0 ,0
XS HTab Starting El and Incr=-1.98,0.04, 100 
Exp/Cntr=0.3,0.1

Type RM Length L Ch R = 1 ,750.*   ,25,25,25
Node Last Edited Time=Jul/03/2014 11:22:25
#Sta/Elev= 6 
       0   -1.25      10   -1.25   10.01   -2.25   19.99   -2.25      20   -1.25
      30   -1.25
#Mann= 3 , 0 , 0 
       0     .03       0      10     .03       0      20     .03       0
Bank Sta=10,20
XS Rating Curve= 0 ,0
XS HTab Starting El and Incr=-2.1,0.04, 100 
Exp/Cntr=0.3,0.1

Type RM Length L Ch R = 1 ,725.*   ,25,25,25
Node Last Edited Time=Jul/03/2014 11:22:25
#Sta/Elev= 6 
       0  -1.375      10  -1.375   10.01  -2.375   19.99  -2.375      20  -1.375
      30  -1.375
#Mann= 3 , 0 , 0 
       0     .03       0      10     .03       0      20     .03       0
Bank Sta=10,20
XS Rating Curve= 0 ,0
XS HTab Starting El and Incr=-2.22,0.04, 100 
Exp/Cntr=0.3,0.1

Type RM Length L Ch R = 1 ,700.*   ,25,25,25
Node Last Edited Time=Jul/03/2014 11:22:25
#Sta/Elev= 6 
       0    -1.5      10    -1.5   10.01    -2.5   19.99    -2.5      20    -1.5
      30    -1.5
#Mann= 3 , 0 , 0 
       0     .03       0      10     .03       0      20     .03       0
Bank Sta=10,20
XS Rating Curve= 0 ,0
XS HTab Starting El and Incr=-2.35,0.04, 100 
Exp/Cntr=0.3,0.1

Type RM Length L Ch R = 1 ,675.*   ,25,25,25
Node Last Edited Time=Jul/03/2014 11:22:25
#Sta/Elev= 6 
       0  -1.625      10  -1.625   10.01  -2.625   19.99  -2.625      20  -1.625
      30  -1.625
#Mann= 3 , 0 , 0 
       0     .03       0      10     .03       0      20     .03       0
Bank Sta=10,20
XS Rating Curve= 0 ,0
XS HTab Starting El and Incr=-2.47,0.04, 100 
Exp/Cntr=0.3,0.1

Type RM Length L Ch R = 1 ,650.*   ,25,25,25
Node Last Edited Time=Jul/03/2014 11:22:25
#Sta/Elev= 6 
       0   -1.75      10   -1.75   10.01   -2.75   19.99   -2.75      20   -1.75
      30   -1.75
#Mann= 3 , 0 , 0 
       0     .03       0      10     .03       0      20     .03       0
Bank Sta=10,20
XS Rating Curve= 0 ,0
XS HTab Starting El and Incr=-2.6,0.04, 100 
Exp/Cntr=0.3,0.1

Type RM Length L Ch R = 1 ,625.*   ,25,25,25
Node Last Edited Time=Jul/03/2014 11:22:25
#Sta/Elev= 6 
       0  -1.875      10  -1.875   10.01  -2.875   19.99  -2.875      20  -1.875
      30  -1.875
#Mann= 3 , 0 , 0 
       0     .03       0      10     .03       0      20     .03       0
Bank Sta=10,20
XS Rating Curve= 0 ,0
XS HTab Starting El and Incr=-2.72,0.04, 100 
Exp/Cntr=0.3,0.1

Type RM Length L Ch R = 1 ,600.*   ,25,25,25
Node Last Edited Time=Jul/03/2014 11:22:25
#Sta/Elev= 6 
       0      -2      10      -2   10.01      -3   19.99      -3      20      -2
      30      -2
#Mann= 3 , 0 , 0 
       0     .03       0      10     .03       0      20     .03       0
Bank Sta=10,20
XS Rating Curve= 0 ,0
XS HTab Starting El and Incr=-2.85,0.04, 100 
Exp/Cntr=0.3,0.1

Type RM Length L Ch R = 1 ,575.*   ,25,25,25
Node Last Edited Time=Jul/03/2014 11:22:25
#Sta/Elev= 6 
       0  -2.125      10  -2.125   10.01  -3.125   19.99  -3.125      20  -2.125
      30  -2.125
#Mann= 3 , 0 , 0 
       0     .03       0      10     .03       0      20     .03       0
Bank Sta=10,20
XS Rating Curve= 0 ,0
XS HTab Starting El and Incr=-2.97,0.04, 100 
Exp/Cntr=0.3,0.1

Type RM Length L Ch R = 1 ,550.*   ,25,25,25
Node Last Edited Time=Jul/03/2014 11:22:25
#Sta/Elev= 6 
       0   -2.25      10   -2.25   10.01   -3.25   19.99   -3.25      20   -2.25
      30   -2.25
#Mann= 3 , 0 , 0 
       0     .03       0      10     .03       0      20     .03       0
Bank Sta=10,20
XS Rating Curve= 0 ,0
XS HTab Starting El and Incr=-3.1,0.04, 100 
Exp/Cntr=0.3,0.1

Type RM Length L Ch R = 1 ,525.*   ,50,50,50
Node Last Edited Time=Jul/03/2014 11:22:25
#Sta/Elev= 6 
       0  -2.375      10  -2.375   10.01  -3.375   19.99  -3.375      20  -2.375
      30  -2.375
#Mann= 3 , 0 , 0 
       0     .03       0      10     .03       0      20     .03       0
Bank Sta=10,20
XS Rating Curve= 0 ,0
XS HTab Starting El and Incr=-3.22,0.04, 100 
Exp/Cntr=0.3,0.1

Type RM Length L Ch R = 3 ,500     ,,,
Node Last Edited Time=Jul/03/2014 11:53:21
Bridge Culvert--1,0,-1,-1, 0 
Deck Dist Width WeirC Skew NumUp NumDn MinLoCord MaxHiCord MaxSubmerge Is_Ogee
15,20,1.4,0, 6, 6, , , 0.98, 0, 0,0,,
       0      10   10.01   19.99      20      30
      -1      -1      -1      -1      -1      -1
    -2.5    -2.5    -2.2    -2.2    -2.5    -2.5
       0      10   10.01   19.99      20      30
      -1      -1      -1      -1      -1      -1
    -2.7    -2.7    -2.2    -2.2    -2.7    -2.7
BR Coef=-1 , 0 , 0 ,, 0 ,,,0.8,-1,,0,
WSPro=,,,, 1 ,,,, 0 ,,,, 0 ,,,,-1 ,-1 ,-1 , 0 , 0 , 0 , 0 , 0 
BC Design=,, 0 ,, 0 ,,,,,,
BC HTab HWMax=3
BC HTab TWMax=3
BC Use User HTab Curves=0
BC User HTab FreeFlow(D)= 100 
              0.          -3.372            0.05          -3.316
           0.125          -3.278             0.3          -3.227
           0.499          -3.181           0.749          -3.139
           0.998          -3.102           1.248           -3.07
           1.498           -3.04           1.747          -3.012
           1.997          -2.987           2.247          -2.962
           2.496           -2.94           2.746          -2.918
           2.995          -2.897           3.245          -2.878
           3.495          -2.859           3.744          -2.841
           3.994          -2.823           4.243          -2.806
           4.493          -2.789           4.743          -2.773
           4.992          -2.757           5.242          -2.741
           5.492          -2.725           5.741           -2.71
           5.991          -2.696            6.24          -2.682
            6.49          -2.668            6.74          -2.654
           6.989          -2.639           7.239          -2.626
           7.489          -2.613           7.738          -2.599
           7.988          -2.586           8.237          -2.572
           8.487          -2.559           8.737          -2.548
           8.986          -2.537           9.236          -2.525
           9.485          -2.515           9.735          -2.504
           9.985          -2.493          10.234          -2.483
          10.484          -2.472          10.734          -2.461
          10.983          -2.451          11.233           -2.44
          11.482           -2.43          11.732          -2.419
          13.514          -2.337          15.295          -2.259
          17.077          -2.053          18.858          -1.935
           20.64          -1.818          22.421          -1.697
          24.203          -1.562          25.984          -1.424
          27.766          -1.282          29.547          -1.138
          32.896          -0.853          36.624          -0.504
          40.774          -0.104          45.395          -0.104
          50.539          -0.104          56.266          -0.063
          62.642           0.011          69.741            0.09
          77.645           0.174          86.444           0.265
           96.24           0.363         107.146           0.467
         119.288           0.578         132.806           0.697
         147.856           0.824         164.612           0.959
         183.266           1.104         204.035           1.258
         227.157           1.422         252.899           1.596
         281.558           1.782         313.465           1.979
         348.988           2.189         388.537           2.411
         432.567           2.647         481.587           2.897
         536.163            3.16         596.922            3.44
         664.568           3.736         739.879           4.044
         823.725           4.366         917.072           4.705
        1020.998           5.055        1136.701           5.417
        1265.516           5.806        1408.929            6.28
        1568.593           6.882        1746.352           7.538
        1944.255           8.257        2164.584           9.037
BC User HTab Sub Curve(D)= 47 
              0.          -3.168           0.016          -3.168
           0.032          -3.168           0.048          -3.168
           0.064          -3.167            0.08          -3.167
           0.096          -3.167           0.112          -3.167
           0.128          -3.166           0.144          -3.166
            0.16          -3.166           0.176          -3.165
           0.192          -3.165           0.208          -3.164
           0.224          -3.163            0.24          -3.163
           0.256          -3.162           0.272          -3.162
           0.288          -3.161           0.304           -3.16
            0.32          -3.159           0.336          -3.158
           0.352          -3.158           0.368          -3.157
           0.384          -3.156             0.4          -3.155
           0.416          -3.154           0.432          -3.153
           0.448          -3.152           0.464          -3.151
            0.48          -3.149           0.496          -3.148
           0.512          -3.147           0.528          -3.146
           0.544          -3.145            0.56          -3.143
           0.576          -3.142           0.592          -3.141
           0.608           -3.14           0.624          -3.138
            0.64          -3.137           0.656          -3.135
           0.672          -3.134           0.688          -3.133
           0.704          -3.131            0.72           -3.13
           0.811           -3.13
BC User HTab Sub Curve(D)= 45 
              0.          -2.963            0.07          -2.963
           0.139          -2.963           0.209          -2.963
           0.278          -2.963           0.348          -2.962
           0.417          -2.962           0.487          -2.961
           0.556          -2.961           0.626           -2.96
           0.695          -2.959           0.765          -2.958
           0.835          -2.957           0.904          -2.956
           0.974          -2.955           1.043          -2.953
           1.113          -2.952           1.182          -2.951
           1.252          -2.949           1.321          -2.947
           1.391          -2.946           1.461          -2.944
            1.53          -2.942             1.6           -2.94
           1.669          -2.938           1.739          -2.936
           1.808          -2.934           1.878          -2.932
           1.947          -2.929           2.017          -2.927
           2.086          -2.924           2.156          -2.922
           2.226          -2.919           2.295          -2.916
           2.365          -2.913           2.434           -2.91
           2.504          -2.907           2.573          -2.904
           2.643          -2.901           2.712          -2.898
           2.782          -2.895           2.851          -2.891
           2.921          -2.888           2.991          -2.885
           3.162          -2.885
BC User HTab Sub Curve(D)= 39 
              0.          -2.759            0.18          -2.759
           0.361          -2.759           0.541          -2.758
           0.722          -2.758           0.902          -2.757
           1.083          -2.756           1.263          -2.755
           1.444          -2.754           1.624          -2.753
           1.805          -2.751           1.985           -2.75
           2.166          -2.748           2.346          -2.746
           2.527          -2.744           2.707          -2.741
           2.888          -2.739           3.068          -2.736
           3.249          -2.734           3.429          -2.731
            3.61          -2.727            3.79          -2.724
           3.971           -2.72           4.151          -2.717
           4.332          -2.713           4.512          -2.709
           4.692          -2.704           4.873            -2.7
           5.053          -2.695           5.234           -2.69
           5.414          -2.685           5.595           -2.68
           5.775          -2.675           5.956          -2.669
           6.136          -2.663           6.317          -2.657
           6.497          -2.651           6.678          -2.645
           6.897          -2.645
BC User HTab Sub Curve(D)= 38 
              0.          -2.555           0.389          -2.555
           0.778          -2.554           1.166          -2.553
           1.555          -2.552           1.944           -2.55
           2.333          -2.548           2.721          -2.545
            3.11          -2.542           3.499          -2.539
           3.888          -2.535           4.276           -2.53
           4.665          -2.526           5.054          -2.521
           5.443          -2.515           5.831          -2.509
            6.22          -2.503           6.609          -2.496
           6.998          -2.489           7.386          -2.481
           7.775          -2.473           8.164          -2.464
           8.553          -2.455           8.942          -2.446
            9.33          -2.436           9.719          -2.426
          10.108          -2.416          10.497          -2.406
          10.885          -2.395          11.274          -2.383
          11.663          -2.372          12.052          -2.361
           12.44          -2.349          12.829          -2.337
          13.218          -2.326          13.607          -2.313
          13.995          -2.301          14.331          -2.301
BC User HTab Sub Curve(D)= 42 
              0.          -2.351           0.534           -2.35
           1.068          -2.349           1.602          -2.348
           2.136          -2.345            2.67          -2.342
           3.204          -2.339           3.738          -2.334
           4.272          -2.329           4.806          -2.323
            5.34          -2.317           5.874           -2.31
           6.408          -2.302           6.942          -2.293
           7.476          -2.283            8.01          -2.273
           8.544          -2.262           9.078          -2.251
           9.612          -2.238          10.146          -2.225
           10.68          -2.211          11.214          -2.196
          11.748           -2.18          12.282          -2.164
          12.816          -2.146           13.35          -2.128
          13.884          -2.109          14.418          -2.089
          14.952          -2.068          15.486          -2.047
           16.02          -2.025          16.554          -2.001
          17.088          -1.978          17.622          -1.953
          18.156          -1.928           18.69          -1.901
          19.224          -1.874          19.758          -1.846
          20.292          -1.816          20.826          -1.786
           21.36          -1.755          21.558          -1.755
BC User HTab Sub Curve(D)= 43 
              0.          -2.146           0.694          -2.146
           1.388          -2.144           2.081          -2.142
           2.775          -2.138           3.469          -2.134
           4.163          -2.128           4.856          -2.122
            5.55          -2.114           6.244          -2.105
           6.938          -2.096           7.632          -2.085
           8.325          -2.073           9.019           -2.06
           9.713          -2.046          10.407          -2.031
          11.101          -2.014          11.794          -1.997
          12.488          -1.979          13.182          -1.959
          13.876          -1.938          14.569          -1.916
          15.263          -1.893          15.957          -1.869
          16.651          -1.843          17.345          -1.816
          18.038          -1.788          18.732          -1.759
          19.426          -1.729           20.12          -1.697
          20.814          -1.664          21.507           -1.63
          22.201          -1.595          22.895          -1.558
          23.589          -1.521          24.282          -1.481
          24.976          -1.441           25.67          -1.399
          26.364          -1.357          27.058          -1.312
          27.751          -1.267          28.445           -1.22
          28.532           -1.22
BC User HTab Sub Curve(D)= 43 
              0.          -1.942           0.867          -1.941
           1.734          -1.939           2.601          -1.936
           3.468           -1.93           4.334          -1.924
           5.201          -1.916           6.068          -1.906
           6.935          -1.896           7.802          -1.883
           8.669          -1.869           9.536          -1.854
          10.403          -1.837           11.27          -1.818
          12.137          -1.798          13.003          -1.776
           13.87          -1.753          14.737          -1.728
          15.604          -1.701          16.471          -1.673
          17.338          -1.643          18.205          -1.612
          19.072          -1.578          19.939          -1.543
          20.806          -1.507          21.672          -1.468
          22.539          -1.428          23.406          -1.386
          24.273          -1.343           25.14          -1.297
          26.007           -1.25          26.874          -1.201
          27.741           -1.15          28.608          -1.097
          29.475          -1.042          30.341          -0.986
          31.208          -0.927          32.075          -0.866
          32.942          -0.801          33.809          -0.734
          34.676          -0.665          35.543          -0.595
          35.648          -0.595
BC User HTab Sub Curve(D)= 42 
              0.          -1.738           1.052          -1.737
           2.104          -1.734           3.157          -1.729
           4.209          -1.722           5.261          -1.713
           6.313          -1.701           7.365          -1.688
           8.417          -1.673            9.47          -1.656
          10.522          -1.636          11.574          -1.615
          12.626          -1.591          13.678          -1.565
          14.731          -1.537          15.783          -1.507
          16.835          -1.474          17.887          -1.439
          18.939          -1.402          19.992          -1.363
          21.044          -1.321          22.096          -1.277
          23.148          -1.231            24.2          -1.182
          25.252          -1.131          26.305          -1.077
          27.357           -1.02          28.409          -0.961
          29.461            -0.9          30.513          -0.834
          31.566          -0.765          32.618          -0.693
           33.67           -0.62          34.722          -0.543
          35.774          -0.464          36.827          -0.383
          37.879          -0.299          38.931          -0.214
          39.983          -0.126          41.035          -0.037
          42.087          -0.037          58.508          -0.037
BC User HTab Sub Curve(D)= 38 
              0.          -1.533           1.248          -1.532
           2.496          -1.528           3.743          -1.521
           4.991          -1.512           6.239          -1.499
           7.487          -1.484           8.734          -1.466
           9.982          -1.446           11.23          -1.422
          12.478          -1.396          13.725          -1.367
          14.973          -1.334          16.221          -1.299
          17.469          -1.261          18.716           -1.22
          19.964          -1.176          21.212          -1.128
           22.46          -1.078          23.707          -1.024
          24.955          -0.967          26.203          -0.907
          27.451          -0.842          28.698          -0.772
          29.946            -0.7          31.194          -0.625
          32.442          -0.545          33.689          -0.463
          34.937          -0.377          36.185          -0.289
          37.433          -0.197           38.68          -0.102
          39.928          -0.005          41.176           0.096
          42.424           0.096          58.508           0.096
          69.741           0.096           70.28           0.096
BC User HTab Sub Curve(D)= 46 
              0.          -1.329            0.97          -1.328
            1.94          -1.326            2.91          -1.322
            3.88          -1.316           4.851          -1.309
           5.821            -1.3           6.791           -1.29
           7.761          -1.278           8.731          -1.264
           9.701          -1.249          10.671          -1.231
          11.641          -1.213          12.611          -1.192
          13.582           -1.17          14.552          -1.146
          15.522          -1.121          16.492          -1.094
          17.462          -1.065          18.432          -1.034
          19.402          -1.001          20.372          -0.967
          21.342           -0.93          22.312          -0.892
          23.283          -0.852          24.253          -0.809
          25.223          -0.764          26.193          -0.717
          27.163          -0.669          28.133          -0.618
          29.103          -0.565          30.073          -0.511
          31.043          -0.454          32.014          -0.396
          32.984          -0.336          33.954          -0.274
          34.924           -0.21          35.894          -0.145
          36.864          -0.077          37.834          -0.008
          38.804           0.063          39.774           0.135
          40.745            0.21          41.715            0.21
           70.28            0.21          81.079            0.21
BC User HTab Sub Curve(D)= 42 
              0.          -1.125             1.1          -1.124
             2.2          -1.121             3.3          -1.116
             4.4          -1.109             5.5          -1.099
             6.6          -1.088             7.7          -1.075
             8.8           -1.06             9.9          -1.042
             11.          -1.023            12.1          -1.001
            13.2          -0.977            14.3          -0.951
            15.4          -0.923            16.5          -0.893
            17.6           -0.86            18.7          -0.825
            19.8          -0.788            20.9          -0.748
             22.          -0.705            23.1          -0.661
            24.2          -0.614            25.3          -0.564
            26.4          -0.512            27.5          -0.458
            28.6          -0.402            29.7          -0.343
            30.8          -0.282            31.9          -0.218
             33.          -0.152            34.1          -0.084
            35.2          -0.014            36.3           0.059
            37.4           0.133            38.5            0.21
            39.6            0.29            40.7           0.371
            41.8           0.371          81.079           0.371
           96.24           0.371          97.076           0.371
BC User HTab Sub Curve(D)= 69 
              0.          -0.921           0.858           -0.92
           1.716          -0.918           2.575          -0.915
           3.433          -0.911           4.291          -0.905
           5.149          -0.899           6.008          -0.891
           6.866          -0.882           7.724          -0.872
           8.582          -0.861            9.44           -0.85
          10.299          -0.838          11.157          -0.826
          12.015          -0.812          12.873          -0.799
          13.731          -0.785           14.59           -0.77
          15.448          -0.756          16.306          -0.741
          17.164          -0.726          18.023           -0.71
          18.881          -0.694          19.739          -0.678
          20.597          -0.662          21.455          -0.646
          22.314          -0.629          23.172          -0.612
           24.03          -0.596          24.888          -0.579
          25.033          -0.573          25.746           -0.54
          25.811          -0.537          26.605          -0.499
          26.666          -0.496          27.463          -0.457
          27.525          -0.454          28.321          -0.413
           28.38           -0.41          29.179          -0.368
          29.236          -0.365          30.038          -0.321
          30.092          -0.318          30.896          -0.273
          30.948           -0.27          31.754          -0.223
          31.806           -0.22          32.612          -0.172
          32.663          -0.169           33.47           -0.12
          33.519          -0.117          34.329          -0.067
          34.376          -0.064          35.187          -0.012
          35.234          -0.009          36.045           0.045