Flow Title=IdealBackwater
Program Version=4.10
Use Restart= 0 
Boundary Location=RIVER1          ,REACH1          ,1000    ,        ,                ,                ,                
Interval=1HOUR
Flow Hydrograph= 14 
       0       0       0       0       0       0       0       0       0       0
       0       0       0       0
DSS Path=
Use DSS=False
CWMS InputPosition= 0 
Use Fixed Start Time=False
Fixed Start Date/Time=,
Is Critical Boundary=False
Critical Boundary Flow=
Boundary Location=RIVER1          ,REACH1          ,0       ,        ,                ,                ,                
Interval=1MIN
Stage Hydrograph= 752 
      .7.7623735 .822021.8763356.9229435.9598076.9853169.9983566.9983566.9853169
.9598076.9229435.8763356 .822021.7623735      .7.6376265 .577979.5236644.4770566
.4401924 .414683.4016434.4016434 .414683.4401924.4770566.5236644 .577979.6376265
      .7.7623735 .822021.8763356.9229435.9598076.9853169.9983566.9983566.9853169
.9598076.9229435.8763356 .822021.7623735      .7.6376265 .577979.5236644.4770566
.4401924 .414683.4016434.4016434 .414683.4401924.4770566.5236644 .577979.6376265
      .7.7623735 .822021.8763356.9229435.9598076.9853169.9983566.9983566.9853169
.9598076.9229435.8763356 .822021.7623735      .7.6376265 .577979.5236644.4770566
.4401924 .414683.4016434.4016434 .414683.4401924.4770566.5236644 .577979.6376265
      .7.7623735 .822021.8763356.9229435.9598076.9853169.9983566.9983566.9853169
.9598076.9229435.8763356 .822021.7623735      .7.6376265 .577979.5236644.4770566
.4401924 .414683.4016434.4016434 .414683.4401924.4770566.5236644 .577979.6376265
      .7.7623735 .822021.8763356.9229435.9598076.9853169.9983566.9983566.9853169
.9598076.9229435.8763356 .822021.7623735      .7.6376265 .577979.5236644.4770566
.4401924 .414683.4016434.4016434 .414683.4401924.4770566.5236644 .577979.6376265
      .7.7623735 .822021.8763356.9229435.9598076.9853169.9983566.9983566.9853169
.9598076.9229435.8763356 .822021.7623735      .7.6376265 .577979.5236644.4770566
.4401924 .414683.4016434.4016434 .414683.4401924.4770566.5236644 .577979.6376265
      .7.7623735 .822021.8763356.9229435.9598076.9853169.9983566.9983566.9853169
.9598076.9229435.8763356 .822021.7623735      .7.6376265 .577979.5236644.4770566
.4401924 .414683.4016434.4016434 .414683.4401924.4770566.5236644 .577979.6376265
      .7.7623735 .822021.8763356.9229435.9598076.9853169.9983566.9983566.9853169
.9598076.9229435.8763356 .822021.7623735      .7.6376265 .577979.5236644.4770566
.4401924 .414683.4016434.4016434 .414683.4401924.4770566.5236644 .577979.6376265
      .7.7623735 .822021.8763356.9229435.9598076.9853169.9983566.9983566.9853169
.9598076.9229435.8763356 .822021.7623735      .7.6376265 .577979.5236644.4770566
.4401924 .414683.4016434.4016434 .414683.4401924.4770566.5236644 .577979.6376265
      .7.7623735 .822021.8763356.9229435.9598076.9853169.9983566.9983566.9853169
.9598076.9229435.8763356 .822021.7623735      .7.6376265 .577979.5236644.4770566
.4401924 .414683.4016434.4016434 .414683.4401924.4770566.5236644 .577979.6376265
      .7.7623735 .822021.8763356.9229435.9598076.9853169.9983566.9983566.9853169
.9598076.9229435.8763356 .822021.7623735      .7.6376265 .577979.5236644.4770566
.4401924 .414683.4016434.4016434 .414683.4401924.4770566.5236644 .577979.6376265
      .7.7623735 .822021.8763356.9229435.9598076.9853169.9983566.9983566.9853169
.9598076.9229435.8763356 .822021.7623735      .7.6376265 .577979.5236644.4770566
.4401924 .414683.4016434.4016434 .414683.4401924.4770566.5236644 .577979.6376265
      .7.7623735 .822021.8763356.9229435.9598076.9853169.9983566.9983566.9853169
.9598076.9229435.8763356 .822021.7623735      .7.6376265 .577979.5236644.4770566
.4401924 .414683.4016434.4016434 .414683.4401924.4770566.5236644 .577979.6376265
      .7.7623735 .822021.8763356.9229435.9598076.9853169.9983566.9983566.9853169
.9598076.9229435.8763356 .822021.7623735      .7.6376265 .577979.5236644.4770566
.4401924 .414683.4016434.4016434 .414683.4401924.4770566.5236644 .577979.6376265
      .7.7623735 .822021.8763356.9229435.9598076.9853169.9983566.9983566.9853169
.9598076.9229435.8763356 .822021.7623735      .7.6376265 .577979.5236644.4770566
.4401924 .414683.4016434.4016434 .414683.4401924.4770566.5236644 .577979.6376265
      .7.7623735 .822021.8763356.9229435.9598076.9853169.9983566.9983566.9853169
.9598076.9229435.8763356 .822021.7623735      .7.6376265 .577979.5236644.4770566
.4401924 .414683.4016434.4016434 .414683.4401924.4770566.5236644 .577979.6376265
      .7.7623735 .822021.8763356.9229435.9598076.9853169.9983566.9983566.9853169
.9598076.9229435.8763356 .822021.7623735      .7.6376265 .577979.5236644.4770566
.4401924 .414683.4016434.4016434 .414683.4401924.4770566.5236644 .577979.6376265
      .7.7623735 .822021.8763356.9229435.9598076.9853169.9983566.9983566.9853169
.9598076.9229435.8763356 .822021.7623735      .7.6376265 .577979.5236644.4770566
.4401924 .414683.4016434.4016434 .414683.4401924.4770566.5236644 .577979.6376265
      .7.7623735 .822021.8763356.9229435.9598076.9853169.9983566.9983566.9853169
.9598076.9229435.8763356 .822021.7623735      .7.6376265 .577979.5236644.4770566
.4401924 .414683.4016434.4016434 .414683.4401924.4770566.5236644 .577979.6376265
      .7.7623735 .822021.8763356.9229435.9598076.9853169.9983566.9983566.9853169
.9598076.9229435.8763356 .822021.7623735      .7.6376265 .577979.5236644.4770566
.4401924 .414683.4016434.4016434 .414683.4401924.4770566.5236644 .577979.6376265
      .7.7623735 .822021.8763356.9229435.9598076.9853169.9983566.9983566.9853169
.9598076.9229435.8763356 .822021.7623735      .7.6376265 .577979.5236644.4770566
.4401924 .414683.4016434.4016434 .414683.4401924.4770566.5236644 .577979.6376265
      .7.7623735 .822021.8763356.9229435.9598076.9853169.9983566.9983566.9853169
.9598076.9229435.8763356 .822021.7623735      .7.6376265 .577979.5236644.4770566
.4401924 .414683.4016434.4016434 .414683.4401924.4770566.5236644 .577979.6376265
      .7.7623735 .822021.8763356.9229435.9598076.9853169.9983566.9983566.9853169
.9598076.9229435.8763356 .822021.7623735      .7.6376265 .577979.5236644.4770566
.4401924 .414683.4016434.4016434 .414683.4401924.4770566.5236644 .577979.6376265
      .7.7623735 .822021.8763356.9229435.9598076.9853169.9983566.9983566.9853169
.9598076.9229435.8763356 .822021.7623735      .7.6376265 .577979.5236644.4770566
.4401924 .414683.4016434.4016434 .414683.4401924.4770566.5236644 .577979.6376265
      .7.7623735 .822021.8763356.9229435.9598076.9853169.9983566.9983566.9853169
.9598076.9229435.8763356 .822021.7623735      .7.6376265 .577979.5236644.4770566
.4401924 .414683.4016434.4016434 .414683.4401924.4770566.5236644 .577979.6376265
      .7.7623735
DSS Path=
Use DSS=False
CWMS InputPosition= 0 
Use Fixed Start Time=False
Fixed Start Date/Time=,
Is Critical Boundary=False
Critical Boundary Flow=
